1a28_deposited_1
  -OEChem-11071115553D

 53 56  0     1  0  0  0  0  0999 V2000
   21.2510    9.8150   62.9740 C   0  0  0  0  0  0  0  0  0  0  0  0
   21.3670    9.4770   64.4370 C   0  0  0  0  0  0  0  0  0  0  0  0
   22.0590    8.1620   64.5460 C   0  0  0  0  0  0  0  0  0  0  0  0
   21.6700    7.2760   65.2940 O   0  0  0  0  0  0  0  0  0  0  0  0
   23.2550    7.9610   63.7200 C   0  0  0  0  0  0  0  0  0  0  0  0
   23.4900    8.8050   62.7110 C   0  0  0  0  0  0  0  0  0  0  0  0
   24.7130    8.5920   61.8990 C   0  0  0  0  0  0  0  0  0  0  0  0
   24.3940    8.6590   60.4300 C   0  0  0  0  0  0  0  0  0  0  0  0
   23.7620    9.9900   60.1170 C   0  0  2  0  0  0  0  0  0  0  0  0
   22.4390   10.0530   60.8460 C   0  0  1  0  0  0  0  0  0  0  0  0
   22.6230    9.9700   62.3560 C   0  0  1  0  0  0  0  0  0  0  0  0
   21.6880   11.3110   60.4480 C   0  0  0  0  0  0  0  0  0  0  0  0
   21.4230   11.3280   58.9530 C   0  0  0  0  0  0  0  0  0  0  0  0
   22.7430   11.2890   58.2250 C   0  0  1  0  0  0  0  0  0  0  0  0
   23.4490   10.0300   58.6400 C   0  0  1  0  0  0  0  0  0  0  0  0
   24.6220    9.9690   57.6960 C   0  0  0  0  0  0  0  0  0  0  0  0
   24.0640   10.5300   56.4010 C   0  0  0  0  0  0  0  0  0  0  0  0
   22.6760   11.0520   56.7320 C   0  0  2  0  0  0  0  0  0  0  0  0
   23.5480   12.5360   58.5170 C   0  0  0  0  0  0  0  0  0  0  0  0
   23.2840   11.2200   62.8940 C   0  0  0  0  0  0  0  0  0  0  0  0
   22.3890   12.2920   55.9400 C   0  0  0  0  0  0  0  0  0  0  0  0
   23.2300   12.8330   55.2370 O   0  0  0  0  0  0  0  0  0  0  0  0
   21.0010   12.8290   56.0290 C   0  0  0  0  0  0  0  0  0  0  0  0
   20.7010    9.0240   62.4590 H   0  0  0  0  0  0  0  0  0  0  0  0
   20.6850   10.7440   62.8640 H   0  0  0  0  0  0  0  0  0  0  0  0
   21.9520   10.2310   64.9700 H   0  0  0  0  0  0  0  0  0  0  0  0
   20.3800    9.3950   64.8980 H   0  0  0  0  0  0  0  0  0  0  0  0
   23.9130    7.1330   63.9510 H   0  0  0  0  0  0  0  0  0  0  0  0
   25.4520    9.3580   62.1490 H   0  0  0  0  0  0  0  0  0  0  0  0
   25.1460    7.6170   62.1360 H   0  0  0  0  0  0  0  0  0  0  0  0
   25.3110    8.5350   59.8490 H   0  0  0  0  0  0  0  0  0  0  0  0
   23.7100    7.8500   60.1620 H   0  0  0  0  0  0  0  0  0  0  0  0
   24.4220   10.8120   60.4060 H   0  0  0  0  0  0  0  0  0  0  0  0
   21.8410    9.1930   60.5330 H   0  0  0  0  0  0  0  0  0  0  0  0
   20.7340   11.3540   60.9770 H   0  0  0  0  0  0  0  0  0  0  0  0
   22.2630   12.1960   60.7320 H   0  0  0  0  0  0  0  0  0  0  0  0
   20.8180   10.4630   58.6710 H   0  0  0  0  0  0  0  0  0  0  0  0
   20.8730   12.2320   58.6850 H   0  0  0  0  0  0  0  0  0  0  0  0
   22.7940    9.1840   58.4170 H   0  0  0  0  0  0  0  0  0  0  0  0
   25.4530   10.5770   58.0620 H   0  0  0  0  0  0  0  0  0  0  0  0
   24.9600    8.9390   57.5610 H   0  0  0  0  0  0  0  0  0  0  0  0
   24.7060   11.3320   56.0280 H   0  0  0  0  0  0  0  0  0  0  0  0
   24.0030    9.7480   55.6410 H   0  0  0  0  0  0  0  0  0  0  0  0
   21.9160   10.3040   56.4930 H   0  0  0  0  0  0  0  0  0  0  0  0
   24.3640   12.6500   57.7990 H   0  0  0  0  0  0  0  0  0  0  0  0
   22.9080   13.4190   58.4510 H   0  0  0  0  0  0  0  0  0  0  0  0
   23.9780   12.4970   59.5200 H   0  0  0  0  0  0  0  0  0  0  0  0
   23.9880   11.6300   62.1670 H   0  0  0  0  0  0  0  0  0  0  0  0
   22.5340   11.9830   63.1170 H   0  0  0  0  0  0  0  0  0  0  0  0
   23.8310   10.9930   63.8120 H   0  0  0  0  0  0  0  0  0  0  0  0
   20.6270   13.0240   55.0200 H   0  0  0  0  0  0  0  0  0  0  0  0
   20.3570   12.0960   56.5220 H   0  0  0  0  0  0  0  0  0  0  0  0
   21.0130   13.7590   56.6010 H   0  0  0  0  0  0  0  0  0  0  0  0
  1  2  1  0  0  0  0
  2  3  1  0  0  0  0
  3  4  2  0  0  0  0
  3  5  1  0  0  0  0
  5  6  2  0  0  0  0
  6  7  1  0  0  0  0
  7  8  1  0  0  0  0
  8  9  1  0  0  0  0
  9 10  1  0  0  0  0
  1 11  1  0  0  0  0
  6 11  1  0  0  0  0
 10 11  1  0  0  0  0
 10 12  1  0  0  0  0
 12 13  1  0  0  0  0
 13 14  1  0  0  0  0
 14 15  1  0  0  0  0
  9 15  1  0  0  0  0
 15 16  1  0  0  0  0
 16 17  1  0  0  0  0
 17 18  1  0  0  0  0
 14 18  1  0  0  0  0
 14 19  1  0  0  0  0
 11 20  1  0  0  0  0
 18 21  1  0  0  0  0
 21 22  2  0  0  0  0
 21 23  1  0  0  0  0
  1 24  1  0  0  0  0
  1 25  1  0  0  0  0
  2 26  1  0  0  0  0
  2 27  1  0  0  0  0
  5 28  1  0  0  0  0
  7 29  1  0  0  0  0
  7 30  1  0  0  0  0
  8 31  1  0  0  0  0
  8 32  1  0  0  0  0
  9 33  1  0  0  0  0
 10 34  1  0  0  0  0
 12 35  1  0  0  0  0
 12 36  1  0  0  0  0
 13 37  1  0  0  0  0
 13 38  1  0  0  0  0
 15 39  1  0  0  0  0
 16 40  1  0  0  0  0
 16 41  1  0  0  0  0
 17 42  1  0  0  0  0
 17 43  1  0  0  0  0
 18 44  1  0  0  0  0
 19 45  1  0  0  0  0
 19 46  1  0  0  0  0
 19 47  1  0  0  0  0
 20 48  1  0  0  0  0
 20 49  1  0  0  0  0
 20 50  1  0  0  0  0
 23 51  1  0  0  0  0
 23 52  1  0  0  0  0
 23 53  1  0  0  0  0
M  END
>  <RMSD>
0.00

>  <PLIP_score>
100.0

>  <HB-SB_sim_score>
100.0

>  <DUck_SCORE ARG766_NH2_1358>
4.98992

>  <Prot_key_at_coor ARG766_NH2_1358>
21.355 5.405 67.506

>  <Lig_key_at_coor ARG766_NH2_1358>
21.67 7.276 65.294

>  <DUck_SCORE GLN725_NE2_672>
6.45981

>  <Prot_key_at_coor GLN725_NE2_672>
20.092 8.592 67.824

>  <Lig_key_at_coor GLN725_NE2_672>
21.67 7.276 65.294

$$$$
